
---------- Begin Simulation Statistics ----------
simSeconds                                   0.002058                       # Number of seconds simulated (Second)
simTicks                                   2057962000                       # Number of ticks simulated (Tick)
finalTick                                  2057962000                       # Number of ticks from beginning of simulation (restored from checkpoints and never reset) (Tick)
simFreq                                  1000000000000                       # The number of ticks per simulated second ((Tick/Second))
hostSeconds                                      0.45                       # Real time elapsed on the host (Second)
hostTickRate                               4547914981                       # The number of ticks simulated per host second (ticks/s) ((Tick/Second))
hostMemory                                    8528648                       # Number of bytes of host memory used (Byte)
simInsts                                       639649                       # Number of instructions simulated (Count)
simOps                                         639987                       # Number of ops (including micro ops) simulated (Count)
hostInstRate                                  1413146                       # Simulator instruction rate (inst/s) ((Count/Second))
hostOpRate                                    1413859                       # Simulator op (including micro ops) rate (op/s) ((Count/Second))
system.clk_domain.clock                          1000                       # Clock period in ticks (Tick)
system.clk_domain.voltage_domain.voltage            1                       # Voltage in Volts (Volt)
system.cpu.numCycles                          2057962                       # Number of cpu cycles simulated (Cycle)
system.cpu.cpi                               3.217245                       # CPI: cycles per instruction (core level) ((Cycle/Count))
system.cpu.ipc                               0.310825                       # IPC: instructions per cycle (core level) ((Count/Cycle))
system.cpu.numWorkItemsStarted                      0                       # Number of work items this cpu started (Count)
system.cpu.numWorkItemsCompleted                    0                       # Number of work items this cpu completed (Count)
system.cpu.commitStats0.numInsts               639666                       # Number of instructions committed (thread level) (Count)
system.cpu.commitStats0.numOps                 640004                       # Number of ops (including micro ops) committed (thread level) (Count)
system.cpu.commitStats0.numInstsNotNOP              0                       # Number of instructions committed excluding NOPs or prefetches (Count)
system.cpu.commitStats0.numOpsNotNOP                0                       # Number of Ops (including micro ops) Simulated (Count)
system.cpu.commitStats0.cpi                  3.217245                       # CPI: cycles per instruction (thread level) ((Cycle/Count))
system.cpu.commitStats0.ipc                  0.310825                       # IPC: instructions per cycle (thread level) ((Count/Cycle))
system.cpu.commitStats0.numMemRefs                  0                       # Number of memory references committed (Count)
system.cpu.commitStats0.numFpInsts              43416                       # Number of float instructions (Count)
system.cpu.commitStats0.numIntInsts            619733                       # Number of integer instructions (Count)
system.cpu.commitStats0.numLoadInsts           120862                       # Number of load instructions (Count)
system.cpu.commitStats0.numStoreInsts           80796                       # Number of store instructions (Count)
system.cpu.commitStats0.numVecInsts                 0                       # Number of vector instructions (Count)
system.cpu.commitStats0.committedInstType::No_OpClass         1592      0.25%      0.25% # Class of committed instruction. (Count)
system.cpu.commitStats0.committedInstType::IntAlu       408176     63.78%     64.03% # Class of committed instruction. (Count)
system.cpu.commitStats0.committedInstType::IntMult         9707      1.52%     65.54% # Class of committed instruction. (Count)
system.cpu.commitStats0.committedInstType::IntDiv            8      0.00%     65.54% # Class of committed instruction. (Count)
system.cpu.commitStats0.committedInstType::FloatAdd         7908      1.24%     66.78% # Class of committed instruction. (Count)
system.cpu.commitStats0.committedInstType::FloatCmp         1447      0.23%     67.01% # Class of committed instruction. (Count)
system.cpu.commitStats0.committedInstType::FloatCvt         2074      0.32%     67.33% # Class of committed instruction. (Count)
system.cpu.commitStats0.committedInstType::FloatMult         6852      1.07%     68.40% # Class of committed instruction. (Count)
system.cpu.commitStats0.committedInstType::FloatMultAcc            0      0.00%     68.40% # Class of committed instruction. (Count)
system.cpu.commitStats0.committedInstType::FloatDiv           24      0.00%     68.40% # Class of committed instruction. (Count)
system.cpu.commitStats0.committedInstType::FloatMisc          558      0.09%     68.49% # Class of committed instruction. (Count)
system.cpu.commitStats0.committedInstType::FloatSqrt            0      0.00%     68.49% # Class of committed instruction. (Count)
system.cpu.commitStats0.committedInstType::SimdAdd            0      0.00%     68.49% # Class of committed instruction. (Count)
system.cpu.commitStats0.committedInstType::SimdAddAcc            0      0.00%     68.49% # Class of committed instruction. (Count)
system.cpu.commitStats0.committedInstType::SimdAlu            0      0.00%     68.49% # Class of committed instruction. (Count)
system.cpu.commitStats0.committedInstType::SimdCmp            0      0.00%     68.49% # Class of committed instruction. (Count)
system.cpu.commitStats0.committedInstType::SimdCvt            0      0.00%     68.49% # Class of committed instruction. (Count)
system.cpu.commitStats0.committedInstType::SimdMisc            0      0.00%     68.49% # Class of committed instruction. (Count)
system.cpu.commitStats0.committedInstType::SimdMult            0      0.00%     68.49% # Class of committed instruction. (Count)
system.cpu.commitStats0.committedInstType::SimdMultAcc            0      0.00%     68.49% # Class of committed instruction. (Count)
system.cpu.commitStats0.committedInstType::SimdMatMultAcc            0      0.00%     68.49% # Class of committed instruction. (Count)
system.cpu.commitStats0.committedInstType::SimdShift            0      0.00%     68.49% # Class of committed instruction. (Count)
system.cpu.commitStats0.committedInstType::SimdShiftAcc            0      0.00%     68.49% # Class of committed instruction. (Count)
system.cpu.commitStats0.committedInstType::SimdDiv            0      0.00%     68.49% # Class of committed instruction. (Count)
system.cpu.commitStats0.committedInstType::SimdSqrt            0      0.00%     68.49% # Class of committed instruction. (Count)
system.cpu.commitStats0.committedInstType::SimdFloatAdd            0      0.00%     68.49% # Class of committed instruction. (Count)
system.cpu.commitStats0.committedInstType::SimdFloatAlu            0      0.00%     68.49% # Class of committed instruction. (Count)
system.cpu.commitStats0.committedInstType::SimdFloatCmp            0      0.00%     68.49% # Class of committed instruction. (Count)
system.cpu.commitStats0.committedInstType::SimdFloatCvt            0      0.00%     68.49% # Class of committed instruction. (Count)
system.cpu.commitStats0.committedInstType::SimdFloatDiv            0      0.00%     68.49% # Class of committed instruction. (Count)
system.cpu.commitStats0.committedInstType::SimdFloatMisc            0      0.00%     68.49% # Class of committed instruction. (Count)
system.cpu.commitStats0.committedInstType::SimdFloatMult            0      0.00%     68.49% # Class of committed instruction. (Count)
system.cpu.commitStats0.committedInstType::SimdFloatMultAcc            0      0.00%     68.49% # Class of committed instruction. (Count)
system.cpu.commitStats0.committedInstType::SimdFloatMatMultAcc            0      0.00%     68.49% # Class of committed instruction. (Count)
system.cpu.commitStats0.committedInstType::SimdFloatSqrt            0      0.00%     68.49% # Class of committed instruction. (Count)
system.cpu.commitStats0.committedInstType::SimdReduceAdd            0      0.00%     68.49% # Class of committed instruction. (Count)
system.cpu.commitStats0.committedInstType::SimdReduceAlu            0      0.00%     68.49% # Class of committed instruction. (Count)
system.cpu.commitStats0.committedInstType::SimdReduceCmp            0      0.00%     68.49% # Class of committed instruction. (Count)
system.cpu.commitStats0.committedInstType::SimdFloatReduceAdd            0      0.00%     68.49% # Class of committed instruction. (Count)
system.cpu.commitStats0.committedInstType::SimdFloatReduceCmp            0      0.00%     68.49% # Class of committed instruction. (Count)
system.cpu.commitStats0.committedInstType::SimdAes            0      0.00%     68.49% # Class of committed instruction. (Count)
system.cpu.commitStats0.committedInstType::SimdAesMix            0      0.00%     68.49% # Class of committed instruction. (Count)
system.cpu.commitStats0.committedInstType::SimdSha1Hash            0      0.00%     68.49% # Class of committed instruction. (Count)
system.cpu.commitStats0.committedInstType::SimdSha1Hash2            0      0.00%     68.49% # Class of committed instruction. (Count)
system.cpu.commitStats0.committedInstType::SimdSha256Hash            0      0.00%     68.49% # Class of committed instruction. (Count)
system.cpu.commitStats0.committedInstType::SimdSha256Hash2            0      0.00%     68.49% # Class of committed instruction. (Count)
system.cpu.commitStats0.committedInstType::SimdShaSigma2            0      0.00%     68.49% # Class of committed instruction. (Count)
system.cpu.commitStats0.committedInstType::SimdShaSigma3            0      0.00%     68.49% # Class of committed instruction. (Count)
system.cpu.commitStats0.committedInstType::SimdPredAlu            0      0.00%     68.49% # Class of committed instruction. (Count)
system.cpu.commitStats0.committedInstType::Matrix            0      0.00%     68.49% # Class of committed instruction. (Count)
system.cpu.commitStats0.committedInstType::MatrixMov            0      0.00%     68.49% # Class of committed instruction. (Count)
system.cpu.commitStats0.committedInstType::MatrixOP            0      0.00%     68.49% # Class of committed instruction. (Count)
system.cpu.commitStats0.committedInstType::MemRead       104905     16.39%     84.88% # Class of committed instruction. (Count)
system.cpu.commitStats0.committedInstType::MemWrite        72200     11.28%     96.16% # Class of committed instruction. (Count)
system.cpu.commitStats0.committedInstType::FloatMemRead        16306      2.55%     98.71% # Class of committed instruction. (Count)
system.cpu.commitStats0.committedInstType::FloatMemWrite         8247      1.29%    100.00% # Class of committed instruction. (Count)
system.cpu.commitStats0.committedInstType::IprAccess            0      0.00%    100.00% # Class of committed instruction. (Count)
system.cpu.commitStats0.committedInstType::InstPrefetch            0      0.00%    100.00% # Class of committed instruction. (Count)
system.cpu.commitStats0.committedInstType::VectorUnitStrideLoad            0      0.00%    100.00% # Class of committed instruction. (Count)
system.cpu.commitStats0.committedInstType::VectorUnitStrideStore            0      0.00%    100.00% # Class of committed instruction. (Count)
system.cpu.commitStats0.committedInstType::VectorUnitStrideMaskLoad            0      0.00%    100.00% # Class of committed instruction. (Count)
system.cpu.commitStats0.committedInstType::VectorUnitStrideMaskStore            0      0.00%    100.00% # Class of committed instruction. (Count)
system.cpu.commitStats0.committedInstType::VectorStridedLoad            0      0.00%    100.00% # Class of committed instruction. (Count)
system.cpu.commitStats0.committedInstType::VectorStridedStore            0      0.00%    100.00% # Class of committed instruction. (Count)
system.cpu.commitStats0.committedInstType::VectorIndexedLoad            0      0.00%    100.00% # Class of committed instruction. (Count)
system.cpu.commitStats0.committedInstType::VectorIndexedStore            0      0.00%    100.00% # Class of committed instruction. (Count)
system.cpu.commitStats0.committedInstType::VectorUnitStrideFaultOnlyFirstLoad            0      0.00%    100.00% # Class of committed instruction. (Count)
system.cpu.commitStats0.committedInstType::VectorWholeRegisterLoad            0      0.00%    100.00% # Class of committed instruction. (Count)
system.cpu.commitStats0.committedInstType::VectorWholeRegisterStore            0      0.00%    100.00% # Class of committed instruction. (Count)
system.cpu.commitStats0.committedInstType::VectorIntegerArith            0      0.00%    100.00% # Class of committed instruction. (Count)
system.cpu.commitStats0.committedInstType::VectorFloatArith            0      0.00%    100.00% # Class of committed instruction. (Count)
system.cpu.commitStats0.committedInstType::VectorFloatConvert            0      0.00%    100.00% # Class of committed instruction. (Count)
system.cpu.commitStats0.committedInstType::VectorIntegerReduce            0      0.00%    100.00% # Class of committed instruction. (Count)
system.cpu.commitStats0.committedInstType::VectorFloatReduce            0      0.00%    100.00% # Class of committed instruction. (Count)
system.cpu.commitStats0.committedInstType::VectorMisc            0      0.00%    100.00% # Class of committed instruction. (Count)
system.cpu.commitStats0.committedInstType::VectorIntegerExtension            0      0.00%    100.00% # Class of committed instruction. (Count)
system.cpu.commitStats0.committedInstType::VectorConfig            0      0.00%    100.00% # Class of committed instruction. (Count)
system.cpu.commitStats0.committedInstType::total       640004                       # Class of committed instruction. (Count)
system.cpu.commitStats0.committedControl::IsControl       117554                       # Class of control type instructions committed (Count)
system.cpu.commitStats0.committedControl::IsDirectControl       106902                       # Class of control type instructions committed (Count)
system.cpu.commitStats0.committedControl::IsIndirectControl        10652                       # Class of control type instructions committed (Count)
system.cpu.commitStats0.committedControl::IsCondControl        91846                       # Class of control type instructions committed (Count)
system.cpu.commitStats0.committedControl::IsUncondControl        25708                       # Class of control type instructions committed (Count)
system.cpu.commitStats0.committedControl::IsCall         9699                       # Class of control type instructions committed (Count)
system.cpu.commitStats0.committedControl::IsReturn         9694                       # Class of control type instructions committed (Count)
system.cpu.dcache.demandHits::cpu.data         199719                       # number of demand (read+write) hits (Count)
system.cpu.dcache.demandHits::total            199719                       # number of demand (read+write) hits (Count)
system.cpu.dcache.overallHits::cpu.data        199719                       # number of overall hits (Count)
system.cpu.dcache.overallHits::total           199719                       # number of overall hits (Count)
system.cpu.dcache.demandMisses::cpu.data          911                       # number of demand (read+write) misses (Count)
system.cpu.dcache.demandMisses::total             911                       # number of demand (read+write) misses (Count)
system.cpu.dcache.overallMisses::cpu.data          911                       # number of overall misses (Count)
system.cpu.dcache.overallMisses::total            911                       # number of overall misses (Count)
system.cpu.dcache.demandMissLatency::cpu.data     35085000                       # number of demand (read+write) miss ticks (Tick)
system.cpu.dcache.demandMissLatency::total     35085000                       # number of demand (read+write) miss ticks (Tick)
system.cpu.dcache.overallMissLatency::cpu.data     35085000                       # number of overall miss ticks (Tick)
system.cpu.dcache.overallMissLatency::total     35085000                       # number of overall miss ticks (Tick)
system.cpu.dcache.demandAccesses::cpu.data       200630                       # number of demand (read+write) accesses (Count)
system.cpu.dcache.demandAccesses::total        200630                       # number of demand (read+write) accesses (Count)
system.cpu.dcache.overallAccesses::cpu.data       200630                       # number of overall (read+write) accesses (Count)
system.cpu.dcache.overallAccesses::total       200630                       # number of overall (read+write) accesses (Count)
system.cpu.dcache.demandMissRate::cpu.data     0.004541                       # miss rate for demand accesses (Ratio)
system.cpu.dcache.demandMissRate::total      0.004541                       # miss rate for demand accesses (Ratio)
system.cpu.dcache.overallMissRate::cpu.data     0.004541                       # miss rate for overall accesses (Ratio)
system.cpu.dcache.overallMissRate::total     0.004541                       # miss rate for overall accesses (Ratio)
system.cpu.dcache.demandAvgMissLatency::cpu.data 38512.623491                       # average overall miss latency in ticks ((Tick/Count))
system.cpu.dcache.demandAvgMissLatency::total 38512.623491                       # average overall miss latency in ticks ((Tick/Count))
system.cpu.dcache.overallAvgMissLatency::cpu.data 38512.623491                       # average overall miss latency ((Tick/Count))
system.cpu.dcache.overallAvgMissLatency::total 38512.623491                       # average overall miss latency ((Tick/Count))
system.cpu.dcache.blockedCycles::no_mshrs            0                       # number of cycles access was blocked (Cycle)
system.cpu.dcache.blockedCycles::no_targets            0                       # number of cycles access was blocked (Cycle)
system.cpu.dcache.blockedCauses::no_mshrs            0                       # number of times access was blocked (Count)
system.cpu.dcache.blockedCauses::no_targets            0                       # number of times access was blocked (Count)
system.cpu.dcache.avgBlocked::no_mshrs            nan                       # average number of cycles each access was blocked ((Cycle/Count))
system.cpu.dcache.avgBlocked::no_targets          nan                       # average number of cycles each access was blocked ((Cycle/Count))
system.cpu.dcache.writebacks::writebacks          306                       # number of writebacks (Count)
system.cpu.dcache.writebacks::total               306                       # number of writebacks (Count)
system.cpu.dcache.demandMshrMisses::cpu.data          911                       # number of demand (read+write) MSHR misses (Count)
system.cpu.dcache.demandMshrMisses::total          911                       # number of demand (read+write) MSHR misses (Count)
system.cpu.dcache.overallMshrMisses::cpu.data          911                       # number of overall MSHR misses (Count)
system.cpu.dcache.overallMshrMisses::total          911                       # number of overall MSHR misses (Count)
system.cpu.dcache.demandMshrMissLatency::cpu.data     33263000                       # number of demand (read+write) MSHR miss ticks (Tick)
system.cpu.dcache.demandMshrMissLatency::total     33263000                       # number of demand (read+write) MSHR miss ticks (Tick)
system.cpu.dcache.overallMshrMissLatency::cpu.data     33263000                       # number of overall MSHR miss ticks (Tick)
system.cpu.dcache.overallMshrMissLatency::total     33263000                       # number of overall MSHR miss ticks (Tick)
system.cpu.dcache.demandMshrMissRate::cpu.data     0.004541                       # mshr miss ratio for demand accesses (Ratio)
system.cpu.dcache.demandMshrMissRate::total     0.004541                       # mshr miss ratio for demand accesses (Ratio)
system.cpu.dcache.overallMshrMissRate::cpu.data     0.004541                       # mshr miss ratio for overall accesses (Ratio)
system.cpu.dcache.overallMshrMissRate::total     0.004541                       # mshr miss ratio for overall accesses (Ratio)
system.cpu.dcache.demandAvgMshrMissLatency::cpu.data 36512.623491                       # average overall mshr miss latency ((Tick/Count))
system.cpu.dcache.demandAvgMshrMissLatency::total 36512.623491                       # average overall mshr miss latency ((Tick/Count))
system.cpu.dcache.overallAvgMshrMissLatency::cpu.data 36512.623491                       # average overall mshr miss latency ((Tick/Count))
system.cpu.dcache.overallAvgMshrMissLatency::total 36512.623491                       # average overall mshr miss latency ((Tick/Count))
system.cpu.dcache.replacements                    625                       # number of replacements (Count)
system.cpu.dcache.LoadLockedReq.hits::cpu.data          336                       # number of LoadLockedReq hits (Count)
system.cpu.dcache.LoadLockedReq.hits::total          336                       # number of LoadLockedReq hits (Count)
system.cpu.dcache.LoadLockedReq.misses::cpu.data            2                       # number of LoadLockedReq misses (Count)
system.cpu.dcache.LoadLockedReq.misses::total            2                       # number of LoadLockedReq misses (Count)
system.cpu.dcache.LoadLockedReq.missLatency::cpu.data       178000                       # number of LoadLockedReq miss ticks (Tick)
system.cpu.dcache.LoadLockedReq.missLatency::total       178000                       # number of LoadLockedReq miss ticks (Tick)
system.cpu.dcache.LoadLockedReq.accesses::cpu.data          338                       # number of LoadLockedReq accesses(hits+misses) (Count)
system.cpu.dcache.LoadLockedReq.accesses::total          338                       # number of LoadLockedReq accesses(hits+misses) (Count)
system.cpu.dcache.LoadLockedReq.missRate::cpu.data     0.005917                       # miss rate for LoadLockedReq accesses (Ratio)
system.cpu.dcache.LoadLockedReq.missRate::total     0.005917                       # miss rate for LoadLockedReq accesses (Ratio)
system.cpu.dcache.LoadLockedReq.avgMissLatency::cpu.data        89000                       # average LoadLockedReq miss latency ((Tick/Count))
system.cpu.dcache.LoadLockedReq.avgMissLatency::total        89000                       # average LoadLockedReq miss latency ((Tick/Count))
system.cpu.dcache.LoadLockedReq.mshrMisses::cpu.data            2                       # number of LoadLockedReq MSHR misses (Count)
system.cpu.dcache.LoadLockedReq.mshrMisses::total            2                       # number of LoadLockedReq MSHR misses (Count)
system.cpu.dcache.LoadLockedReq.mshrMissLatency::cpu.data       174000                       # number of LoadLockedReq MSHR miss ticks (Tick)
system.cpu.dcache.LoadLockedReq.mshrMissLatency::total       174000                       # number of LoadLockedReq MSHR miss ticks (Tick)
system.cpu.dcache.LoadLockedReq.mshrMissRate::cpu.data     0.005917                       # mshr miss rate for LoadLockedReq accesses (Ratio)
system.cpu.dcache.LoadLockedReq.mshrMissRate::total     0.005917                       # mshr miss rate for LoadLockedReq accesses (Ratio)
system.cpu.dcache.LoadLockedReq.avgMshrMissLatency::cpu.data        87000                       # average LoadLockedReq mshr miss latency ((Tick/Count))
system.cpu.dcache.LoadLockedReq.avgMshrMissLatency::total        87000                       # average LoadLockedReq mshr miss latency ((Tick/Count))
system.cpu.dcache.ReadReq.hits::cpu.data       120096                       # number of ReadReq hits (Count)
system.cpu.dcache.ReadReq.hits::total          120096                       # number of ReadReq hits (Count)
system.cpu.dcache.ReadReq.misses::cpu.data          428                       # number of ReadReq misses (Count)
system.cpu.dcache.ReadReq.misses::total           428                       # number of ReadReq misses (Count)
system.cpu.dcache.ReadReq.missLatency::cpu.data     15171000                       # number of ReadReq miss ticks (Tick)
system.cpu.dcache.ReadReq.missLatency::total     15171000                       # number of ReadReq miss ticks (Tick)
system.cpu.dcache.ReadReq.accesses::cpu.data       120524                       # number of ReadReq accesses(hits+misses) (Count)
system.cpu.dcache.ReadReq.accesses::total       120524                       # number of ReadReq accesses(hits+misses) (Count)
system.cpu.dcache.ReadReq.missRate::cpu.data     0.003551                       # miss rate for ReadReq accesses (Ratio)
system.cpu.dcache.ReadReq.missRate::total     0.003551                       # miss rate for ReadReq accesses (Ratio)
system.cpu.dcache.ReadReq.avgMissLatency::cpu.data 35446.261682                       # average ReadReq miss latency ((Tick/Count))
system.cpu.dcache.ReadReq.avgMissLatency::total 35446.261682                       # average ReadReq miss latency ((Tick/Count))
system.cpu.dcache.ReadReq.mshrMisses::cpu.data          428                       # number of ReadReq MSHR misses (Count)
system.cpu.dcache.ReadReq.mshrMisses::total          428                       # number of ReadReq MSHR misses (Count)
system.cpu.dcache.ReadReq.mshrMissLatency::cpu.data     14315000                       # number of ReadReq MSHR miss ticks (Tick)
system.cpu.dcache.ReadReq.mshrMissLatency::total     14315000                       # number of ReadReq MSHR miss ticks (Tick)
system.cpu.dcache.ReadReq.mshrMissRate::cpu.data     0.003551                       # mshr miss rate for ReadReq accesses (Ratio)
system.cpu.dcache.ReadReq.mshrMissRate::total     0.003551                       # mshr miss rate for ReadReq accesses (Ratio)
system.cpu.dcache.ReadReq.avgMshrMissLatency::cpu.data 33446.261682                       # average ReadReq mshr miss latency ((Tick/Count))
system.cpu.dcache.ReadReq.avgMshrMissLatency::total 33446.261682                       # average ReadReq mshr miss latency ((Tick/Count))
system.cpu.dcache.StoreCondReq.hits::cpu.data          338                       # number of StoreCondReq hits (Count)
system.cpu.dcache.StoreCondReq.hits::total          338                       # number of StoreCondReq hits (Count)
system.cpu.dcache.StoreCondReq.accesses::cpu.data          338                       # number of StoreCondReq accesses(hits+misses) (Count)
system.cpu.dcache.StoreCondReq.accesses::total          338                       # number of StoreCondReq accesses(hits+misses) (Count)
system.cpu.dcache.SwapReq.hits::cpu.data          348                       # number of SwapReq hits (Count)
system.cpu.dcache.SwapReq.hits::total             348                       # number of SwapReq hits (Count)
system.cpu.dcache.SwapReq.misses::cpu.data            1                       # number of SwapReq misses (Count)
system.cpu.dcache.SwapReq.misses::total             1                       # number of SwapReq misses (Count)
system.cpu.dcache.SwapReq.missLatency::cpu.data        75000                       # number of SwapReq miss ticks (Tick)
system.cpu.dcache.SwapReq.missLatency::total        75000                       # number of SwapReq miss ticks (Tick)
system.cpu.dcache.SwapReq.accesses::cpu.data          349                       # number of SwapReq accesses(hits+misses) (Count)
system.cpu.dcache.SwapReq.accesses::total          349                       # number of SwapReq accesses(hits+misses) (Count)
system.cpu.dcache.SwapReq.missRate::cpu.data     0.002865                       # miss rate for SwapReq accesses (Ratio)
system.cpu.dcache.SwapReq.missRate::total     0.002865                       # miss rate for SwapReq accesses (Ratio)
system.cpu.dcache.SwapReq.avgMissLatency::cpu.data        75000                       # average SwapReq miss latency ((Tick/Count))
system.cpu.dcache.SwapReq.avgMissLatency::total        75000                       # average SwapReq miss latency ((Tick/Count))
system.cpu.dcache.SwapReq.mshrMisses::cpu.data            1                       # number of SwapReq MSHR misses (Count)
system.cpu.dcache.SwapReq.mshrMisses::total            1                       # number of SwapReq MSHR misses (Count)
system.cpu.dcache.SwapReq.mshrMissLatency::cpu.data        73000                       # number of SwapReq MSHR miss ticks (Tick)
system.cpu.dcache.SwapReq.mshrMissLatency::total        73000                       # number of SwapReq MSHR miss ticks (Tick)
system.cpu.dcache.SwapReq.mshrMissRate::cpu.data     0.002865                       # mshr miss rate for SwapReq accesses (Ratio)
system.cpu.dcache.SwapReq.mshrMissRate::total     0.002865                       # mshr miss rate for SwapReq accesses (Ratio)
system.cpu.dcache.SwapReq.avgMshrMissLatency::cpu.data        73000                       # average SwapReq mshr miss latency ((Tick/Count))
system.cpu.dcache.SwapReq.avgMshrMissLatency::total        73000                       # average SwapReq mshr miss latency ((Tick/Count))
system.cpu.dcache.WriteReq.hits::cpu.data        79623                       # number of WriteReq hits (Count)
system.cpu.dcache.WriteReq.hits::total          79623                       # number of WriteReq hits (Count)
system.cpu.dcache.WriteReq.misses::cpu.data          483                       # number of WriteReq misses (Count)
system.cpu.dcache.WriteReq.misses::total          483                       # number of WriteReq misses (Count)
system.cpu.dcache.WriteReq.missLatency::cpu.data     19914000                       # number of WriteReq miss ticks (Tick)
system.cpu.dcache.WriteReq.missLatency::total     19914000                       # number of WriteReq miss ticks (Tick)
system.cpu.dcache.WriteReq.accesses::cpu.data        80106                       # number of WriteReq accesses(hits+misses) (Count)
system.cpu.dcache.WriteReq.accesses::total        80106                       # number of WriteReq accesses(hits+misses) (Count)
system.cpu.dcache.WriteReq.missRate::cpu.data     0.006030                       # miss rate for WriteReq accesses (Ratio)
system.cpu.dcache.WriteReq.missRate::total     0.006030                       # miss rate for WriteReq accesses (Ratio)
system.cpu.dcache.WriteReq.avgMissLatency::cpu.data 41229.813665                       # average WriteReq miss latency ((Tick/Count))
system.cpu.dcache.WriteReq.avgMissLatency::total 41229.813665                       # average WriteReq miss latency ((Tick/Count))
system.cpu.dcache.WriteReq.mshrMisses::cpu.data          483                       # number of WriteReq MSHR misses (Count)
system.cpu.dcache.WriteReq.mshrMisses::total          483                       # number of WriteReq MSHR misses (Count)
system.cpu.dcache.WriteReq.mshrMissLatency::cpu.data     18948000                       # number of WriteReq MSHR miss ticks (Tick)
system.cpu.dcache.WriteReq.mshrMissLatency::total     18948000                       # number of WriteReq MSHR miss ticks (Tick)
system.cpu.dcache.WriteReq.mshrMissRate::cpu.data     0.006030                       # mshr miss rate for WriteReq accesses (Ratio)
system.cpu.dcache.WriteReq.mshrMissRate::total     0.006030                       # mshr miss rate for WriteReq accesses (Ratio)
system.cpu.dcache.WriteReq.avgMshrMissLatency::cpu.data 39229.813665                       # average WriteReq mshr miss latency ((Tick/Count))
system.cpu.dcache.WriteReq.avgMshrMissLatency::total 39229.813665                       # average WriteReq mshr miss latency ((Tick/Count))
system.cpu.dcache.power_state.pwrStateResidencyTicks::UNDEFINED   2057962000                       # Cumulative time (in ticks) in various power states (Tick)
system.cpu.dcache.tags.tagsInUse           260.155778                       # Average ticks per tags in use ((Tick/Count))
system.cpu.dcache.tags.totalRefs               201655                       # Total number of references to valid blocks. (Count)
system.cpu.dcache.tags.sampledRefs                914                       # Sample count of references to valid blocks. (Count)
system.cpu.dcache.tags.avgRefs             220.629103                       # Average number of references to valid blocks. ((Count/Count))
system.cpu.dcache.tags.warmupTick              199000                       # The tick when the warmup percentage was hit. (Tick)
system.cpu.dcache.tags.occupancies::cpu.data   260.155778                       # Average occupied blocks per tick, per requestor ((Count/Tick))
system.cpu.dcache.tags.avgOccs::cpu.data     0.508117                       # Average percentage of cache occupancy ((Ratio/Tick))
system.cpu.dcache.tags.avgOccs::total        0.508117                       # Average percentage of cache occupancy ((Ratio/Tick))
system.cpu.dcache.tags.occupanciesTaskId::1024          289                       # Occupied blocks per task id (Count)
system.cpu.dcache.tags.ageTaskId_1024::0            9                       # Occupied blocks per task id, per block age (Count)
system.cpu.dcache.tags.ageTaskId_1024::1            8                       # Occupied blocks per task id, per block age (Count)
system.cpu.dcache.tags.ageTaskId_1024::2           16                       # Occupied blocks per task id, per block age (Count)
system.cpu.dcache.tags.ageTaskId_1024::3          256                       # Occupied blocks per task id, per block age (Count)
system.cpu.dcache.tags.ratioOccsTaskId::1024     0.564453                       # Ratio of occupied blocks and all blocks, per task id (Ratio)
system.cpu.dcache.tags.tagAccesses             404224                       # Number of tag accesses (Count)
system.cpu.dcache.tags.dataAccesses            404224                       # Number of data accesses (Count)
system.cpu.dcache.tags.power_state.pwrStateResidencyTicks::UNDEFINED   2057962000                       # Cumulative time (in ticks) in various power states (Tick)
system.cpu.exec_context.thread_0.numMatAluAccesses            0                       # Number of matrix alu accesses (Count)
system.cpu.exec_context.thread_0.numCallsReturns        19393                       # Number of times a function call or return occured (Count)
system.cpu.exec_context.thread_0.numMatInsts            0                       # Number of matrix instructions (Count)
system.cpu.exec_context.thread_0.numIdleCycles     0.001000                       # Number of idle cycles (Cycle)
system.cpu.exec_context.thread_0.numBusyCycles 2057961.999000                       # Number of busy cycles (Cycle)
system.cpu.exec_context.thread_0.notIdleFraction     1.000000                       # Percentage of non-idle cycles (Ratio)
system.cpu.exec_context.thread_0.idleFraction     0.000000                       # Percentage of idle cycles (Ratio)
system.cpu.executeStats0.numInsts                   0                       # Number of executed instructions (Count)
system.cpu.executeStats0.numNop                     0                       # Number of nop insts executed (Count)
system.cpu.executeStats0.numBranches                0                       # Number of branches executed (Count)
system.cpu.executeStats0.numLoadInsts               0                       # Number of load instructions executed (Count)
system.cpu.executeStats0.numStoreInsts         201658                       # Number of stores executed (Count)
system.cpu.executeStats0.instRate                   0                       # Inst execution rate ((Count/Cycle))
system.cpu.executeStats0.numFpAluAccesses        43416                       # Number of float alu accesses (Count)
system.cpu.executeStats0.numFpRegReads          42725                       # Number of times the floating registers were read (Count)
system.cpu.executeStats0.numFpRegWrites         33122                       # Number of times the floating registers were written (Count)
system.cpu.executeStats0.numIntAluAccesses       619733                       # Number of integer alu accesses (Count)
system.cpu.executeStats0.numIntRegReads        764070                       # Number of times the integer registers were read (Count)
system.cpu.executeStats0.numIntRegWrites       417915                       # Number of times the integer registers were written (Count)
system.cpu.executeStats0.numMemRefs            201658                       # Number of memory refs (Count)
system.cpu.executeStats0.numMiscRegReads        78872                       # Number of times the Misc registers were read (Count)
system.cpu.executeStats0.numMiscRegWrites        37726                       # Number of times the Misc registers were written (Count)
system.cpu.executeStats0.numVecAluAccesses            0                       # Number of vector alu accesses (Count)
system.cpu.executeStats0.numDiscardedOps            0                       # Number of ops (including micro ops) which were discarded before commit (Count)
system.cpu.fetchStats0.numInsts                639666                       # Number of instructions fetched (thread level) (Count)
system.cpu.fetchStats0.numOps                  640004                       # Number of ops (including micro ops) fetched (thread level) (Count)
system.cpu.fetchStats0.fetchRate             0.310825                       # Number of inst fetches per cycle ((Count/Cycle))
system.cpu.fetchStats0.numBranches             117554                       # Number of branches fetched (Count)
system.cpu.fetchStats0.branchRate            0.057122                       # Number of branch fetches per cycle (Ratio)
system.cpu.fetchStats0.numFetchSuspends             0                       # Number of times Execute suspended instruction fetching (Count)
system.cpu.icache.demandHits::cpu.inst         793499                       # number of demand (read+write) hits (Count)
system.cpu.icache.demandHits::total            793499                       # number of demand (read+write) hits (Count)
system.cpu.icache.overallHits::cpu.inst        793499                       # number of overall hits (Count)
system.cpu.icache.overallHits::total           793499                       # number of overall hits (Count)
system.cpu.icache.demandMisses::cpu.inst          422                       # number of demand (read+write) misses (Count)
system.cpu.icache.demandMisses::total             422                       # number of demand (read+write) misses (Count)
system.cpu.icache.overallMisses::cpu.inst          422                       # number of overall misses (Count)
system.cpu.icache.overallMisses::total            422                       # number of overall misses (Count)
system.cpu.icache.demandMissLatency::cpu.inst     34144000                       # number of demand (read+write) miss ticks (Tick)
system.cpu.icache.demandMissLatency::total     34144000                       # number of demand (read+write) miss ticks (Tick)
system.cpu.icache.overallMissLatency::cpu.inst     34144000                       # number of overall miss ticks (Tick)
system.cpu.icache.overallMissLatency::total     34144000                       # number of overall miss ticks (Tick)
system.cpu.icache.demandAccesses::cpu.inst       793921                       # number of demand (read+write) accesses (Count)
system.cpu.icache.demandAccesses::total        793921                       # number of demand (read+write) accesses (Count)
system.cpu.icache.overallAccesses::cpu.inst       793921                       # number of overall (read+write) accesses (Count)
system.cpu.icache.overallAccesses::total       793921                       # number of overall (read+write) accesses (Count)
system.cpu.icache.demandMissRate::cpu.inst     0.000532                       # miss rate for demand accesses (Ratio)
system.cpu.icache.demandMissRate::total      0.000532                       # miss rate for demand accesses (Ratio)
system.cpu.icache.overallMissRate::cpu.inst     0.000532                       # miss rate for overall accesses (Ratio)
system.cpu.icache.overallMissRate::total     0.000532                       # miss rate for overall accesses (Ratio)
system.cpu.icache.demandAvgMissLatency::cpu.inst 80909.952607                       # average overall miss latency in ticks ((Tick/Count))
system.cpu.icache.demandAvgMissLatency::total 80909.952607                       # average overall miss latency in ticks ((Tick/Count))
system.cpu.icache.overallAvgMissLatency::cpu.inst 80909.952607                       # average overall miss latency ((Tick/Count))
system.cpu.icache.overallAvgMissLatency::total 80909.952607                       # average overall miss latency ((Tick/Count))
system.cpu.icache.blockedCycles::no_mshrs            0                       # number of cycles access was blocked (Cycle)
system.cpu.icache.blockedCycles::no_targets            0                       # number of cycles access was blocked (Cycle)
system.cpu.icache.blockedCauses::no_mshrs            0                       # number of times access was blocked (Count)
system.cpu.icache.blockedCauses::no_targets            0                       # number of times access was blocked (Count)
system.cpu.icache.avgBlocked::no_mshrs            nan                       # average number of cycles each access was blocked ((Cycle/Count))
system.cpu.icache.avgBlocked::no_targets          nan                       # average number of cycles each access was blocked ((Cycle/Count))
system.cpu.icache.demandMshrMisses::cpu.inst          422                       # number of demand (read+write) MSHR misses (Count)
system.cpu.icache.demandMshrMisses::total          422                       # number of demand (read+write) MSHR misses (Count)
system.cpu.icache.overallMshrMisses::cpu.inst          422                       # number of overall MSHR misses (Count)
system.cpu.icache.overallMshrMisses::total          422                       # number of overall MSHR misses (Count)
system.cpu.icache.demandMshrMissLatency::cpu.inst     33300000                       # number of demand (read+write) MSHR miss ticks (Tick)
system.cpu.icache.demandMshrMissLatency::total     33300000                       # number of demand (read+write) MSHR miss ticks (Tick)
system.cpu.icache.overallMshrMissLatency::cpu.inst     33300000                       # number of overall MSHR miss ticks (Tick)
system.cpu.icache.overallMshrMissLatency::total     33300000                       # number of overall MSHR miss ticks (Tick)
system.cpu.icache.demandMshrMissRate::cpu.inst     0.000532                       # mshr miss ratio for demand accesses (Ratio)
system.cpu.icache.demandMshrMissRate::total     0.000532                       # mshr miss ratio for demand accesses (Ratio)
system.cpu.icache.overallMshrMissRate::cpu.inst     0.000532                       # mshr miss ratio for overall accesses (Ratio)
system.cpu.icache.overallMshrMissRate::total     0.000532                       # mshr miss ratio for overall accesses (Ratio)
system.cpu.icache.demandAvgMshrMissLatency::cpu.inst 78909.952607                       # average overall mshr miss latency ((Tick/Count))
system.cpu.icache.demandAvgMshrMissLatency::total 78909.952607                       # average overall mshr miss latency ((Tick/Count))
system.cpu.icache.overallAvgMshrMissLatency::cpu.inst 78909.952607                       # average overall mshr miss latency ((Tick/Count))
system.cpu.icache.overallAvgMshrMissLatency::total 78909.952607                       # average overall mshr miss latency ((Tick/Count))
system.cpu.icache.replacements                     68                       # number of replacements (Count)
system.cpu.icache.ReadReq.hits::cpu.inst       793499                       # number of ReadReq hits (Count)
system.cpu.icache.ReadReq.hits::total          793499                       # number of ReadReq hits (Count)
system.cpu.icache.ReadReq.misses::cpu.inst          422                       # number of ReadReq misses (Count)
system.cpu.icache.ReadReq.misses::total           422                       # number of ReadReq misses (Count)
system.cpu.icache.ReadReq.missLatency::cpu.inst     34144000                       # number of ReadReq miss ticks (Tick)
system.cpu.icache.ReadReq.missLatency::total     34144000                       # number of ReadReq miss ticks (Tick)
system.cpu.icache.ReadReq.accesses::cpu.inst       793921                       # number of ReadReq accesses(hits+misses) (Count)
system.cpu.icache.ReadReq.accesses::total       793921                       # number of ReadReq accesses(hits+misses) (Count)
system.cpu.icache.ReadReq.missRate::cpu.inst     0.000532                       # miss rate for ReadReq accesses (Ratio)
system.cpu.icache.ReadReq.missRate::total     0.000532                       # miss rate for ReadReq accesses (Ratio)
system.cpu.icache.ReadReq.avgMissLatency::cpu.inst 80909.952607                       # average ReadReq miss latency ((Tick/Count))
system.cpu.icache.ReadReq.avgMissLatency::total 80909.952607                       # average ReadReq miss latency ((Tick/Count))
system.cpu.icache.ReadReq.mshrMisses::cpu.inst          422                       # number of ReadReq MSHR misses (Count)
system.cpu.icache.ReadReq.mshrMisses::total          422                       # number of ReadReq MSHR misses (Count)
system.cpu.icache.ReadReq.mshrMissLatency::cpu.inst     33300000                       # number of ReadReq MSHR miss ticks (Tick)
system.cpu.icache.ReadReq.mshrMissLatency::total     33300000                       # number of ReadReq MSHR miss ticks (Tick)
system.cpu.icache.ReadReq.mshrMissRate::cpu.inst     0.000532                       # mshr miss rate for ReadReq accesses (Ratio)
system.cpu.icache.ReadReq.mshrMissRate::total     0.000532                       # mshr miss rate for ReadReq accesses (Ratio)
system.cpu.icache.ReadReq.avgMshrMissLatency::cpu.inst 78909.952607                       # average ReadReq mshr miss latency ((Tick/Count))
system.cpu.icache.ReadReq.avgMshrMissLatency::total 78909.952607                       # average ReadReq mshr miss latency ((Tick/Count))
system.cpu.icache.power_state.pwrStateResidencyTicks::UNDEFINED   2057962000                       # Cumulative time (in ticks) in various power states (Tick)
system.cpu.icache.tags.tagsInUse           294.231808                       # Average ticks per tags in use ((Tick/Count))
system.cpu.icache.tags.totalRefs               793921                       # Total number of references to valid blocks. (Count)
system.cpu.icache.tags.sampledRefs                422                       # Sample count of references to valid blocks. (Count)
system.cpu.icache.tags.avgRefs            1881.329384                       # Average number of references to valid blocks. ((Count/Count))
system.cpu.icache.tags.warmupTick               88000                       # The tick when the warmup percentage was hit. (Tick)
system.cpu.icache.tags.occupancies::cpu.inst   294.231808                       # Average occupied blocks per tick, per requestor ((Count/Tick))
system.cpu.icache.tags.avgOccs::cpu.inst     0.574672                       # Average percentage of cache occupancy ((Ratio/Tick))
system.cpu.icache.tags.avgOccs::total        0.574672                       # Average percentage of cache occupancy ((Ratio/Tick))
system.cpu.icache.tags.occupanciesTaskId::1024          354                       # Occupied blocks per task id (Count)
system.cpu.icache.tags.ageTaskId_1024::0           44                       # Occupied blocks per task id, per block age (Count)
system.cpu.icache.tags.ageTaskId_1024::1           20                       # Occupied blocks per task id, per block age (Count)
system.cpu.icache.tags.ageTaskId_1024::2           11                       # Occupied blocks per task id, per block age (Count)
system.cpu.icache.tags.ageTaskId_1024::3          279                       # Occupied blocks per task id, per block age (Count)
system.cpu.icache.tags.ratioOccsTaskId::1024     0.691406                       # Ratio of occupied blocks and all blocks, per task id (Ratio)
system.cpu.icache.tags.tagAccesses            1588264                       # Number of tag accesses (Count)
system.cpu.icache.tags.dataAccesses           1588264                       # Number of data accesses (Count)
system.cpu.icache.tags.power_state.pwrStateResidencyTicks::UNDEFINED   2057962000                       # Cumulative time (in ticks) in various power states (Tick)
system.cpu.mmu.dtb.readHits                         0                       # read hits (Count)
system.cpu.mmu.dtb.readMisses                       0                       # read misses (Count)
system.cpu.mmu.dtb.readAccesses                     0                       # read accesses (Count)
system.cpu.mmu.dtb.writeHits                        0                       # write hits (Count)
system.cpu.mmu.dtb.writeMisses                      0                       # write misses (Count)
system.cpu.mmu.dtb.writeAccesses                    0                       # write accesses (Count)
system.cpu.mmu.dtb.hits                             0                       # Total TLB (read and write) hits (Count)
system.cpu.mmu.dtb.misses                           0                       # Total TLB (read and write) misses (Count)
system.cpu.mmu.dtb.accesses                         0                       # Total TLB (read and write) accesses (Count)
system.cpu.mmu.dtb.walker.power_state.pwrStateResidencyTicks::UNDEFINED   2057962000                       # Cumulative time (in ticks) in various power states (Tick)
system.cpu.mmu.itb.readHits                         0                       # read hits (Count)
system.cpu.mmu.itb.readMisses                       0                       # read misses (Count)
system.cpu.mmu.itb.readAccesses                     0                       # read accesses (Count)
system.cpu.mmu.itb.writeHits                        0                       # write hits (Count)
system.cpu.mmu.itb.writeMisses                      0                       # write misses (Count)
system.cpu.mmu.itb.writeAccesses                    0                       # write accesses (Count)
system.cpu.mmu.itb.hits                             0                       # Total TLB (read and write) hits (Count)
system.cpu.mmu.itb.misses                           0                       # Total TLB (read and write) misses (Count)
system.cpu.mmu.itb.accesses                         0                       # Total TLB (read and write) accesses (Count)
system.cpu.mmu.itb.walker.power_state.pwrStateResidencyTicks::UNDEFINED   2057962000                       # Cumulative time (in ticks) in various power states (Tick)
system.cpu.power_state.pwrStateResidencyTicks::ON   2057962000                       # Cumulative time (in ticks) in various power states (Tick)
system.cpu.thread_0.numInsts                        0                       # Number of Instructions committed (Count)
system.cpu.thread_0.numOps                          0                       # Number of Ops committed (Count)
system.cpu.thread_0.numMemRefs                      0                       # Number of Memory References (Count)
system.cpu.workload.numSyscalls                    14                       # Number of system calls (Count)
system.l2bus.transDist::ReadResp                  852                       # Transaction distribution (Count)
system.l2bus.transDist::WritebackDirty            306                       # Transaction distribution (Count)
system.l2bus.transDist::CleanEvict                387                       # Transaction distribution (Count)
system.l2bus.transDist::ReadExReq                 484                       # Transaction distribution (Count)
system.l2bus.transDist::ReadExResp                484                       # Transaction distribution (Count)
system.l2bus.transDist::ReadCleanReq              422                       # Transaction distribution (Count)
system.l2bus.transDist::ReadSharedReq             430                       # Transaction distribution (Count)
system.l2bus.pktCount_system.cpu.icache.mem_side_port::system.l2cache.cpu_side_port          912                       # Packet count per connected requestor and responder (Count)
system.l2bus.pktCount_system.cpu.dcache.mem_side_port::system.l2cache.cpu_side_port         2453                       # Packet count per connected requestor and responder (Count)
system.l2bus.pktCount::total                     3365                       # Packet count per connected requestor and responder (Count)
system.l2bus.pktSize_system.cpu.icache.mem_side_port::system.l2cache.cpu_side_port        27008                       # Cumulative packet size per connected requestor and responder (Byte)
system.l2bus.pktSize_system.cpu.dcache.mem_side_port::system.l2cache.cpu_side_port        78080                       # Cumulative packet size per connected requestor and responder (Byte)
system.l2bus.pktSize::total                    105088                       # Cumulative packet size per connected requestor and responder (Byte)
system.l2bus.snoops                                 0                       # Total snoops (Count)
system.l2bus.snoopTraffic                           0                       # Total snoop traffic (Byte)
system.l2bus.snoopFanout::samples                1336                       # Request fanout histogram (Count)
system.l2bus.snoopFanout::mean                      0                       # Request fanout histogram (Count)
system.l2bus.snoopFanout::stdev                     0                       # Request fanout histogram (Count)
system.l2bus.snoopFanout::underflows                0      0.00%      0.00% # Request fanout histogram (Count)
system.l2bus.snoopFanout::0                      1336    100.00%    100.00% # Request fanout histogram (Count)
system.l2bus.snoopFanout::1                         0      0.00%    100.00% # Request fanout histogram (Count)
system.l2bus.snoopFanout::2                         0      0.00%    100.00% # Request fanout histogram (Count)
system.l2bus.snoopFanout::overflows                 0      0.00%    100.00% # Request fanout histogram (Count)
system.l2bus.snoopFanout::min_value                 0                       # Request fanout histogram (Count)
system.l2bus.snoopFanout::max_value                 0                       # Request fanout histogram (Count)
system.l2bus.snoopFanout::total                  1336                       # Request fanout histogram (Count)
system.l2bus.power_state.pwrStateResidencyTicks::UNDEFINED   2057962000                       # Cumulative time (in ticks) in various power states (Tick)
system.l2bus.reqLayer0.occupancy              2641000                       # Layer occupancy (ticks) (Tick)
system.l2bus.reqLayer0.utilization                0.0                       # Layer utilization (Ratio)
system.l2bus.respLayer0.occupancy             1266000                       # Layer occupancy (ticks) (Tick)
system.l2bus.respLayer0.utilization               0.0                       # Layer utilization (Ratio)
system.l2bus.respLayer1.occupancy             2742000                       # Layer occupancy (ticks) (Tick)
system.l2bus.respLayer1.utilization               0.0                       # Layer utilization (Ratio)
system.l2bus.snoop_filter.totRequests            2029                       # Total number of requests made to the snoop filter. (Count)
system.l2bus.snoop_filter.hitSingleRequests          693                       # Number of requests hitting in the snoop filter with a single holder of the requested data. (Count)
system.l2bus.snoop_filter.hitMultiRequests            0                       # Number of requests hitting in the snoop filter with multiple (>1) holders of the requested data. (Count)
system.l2bus.snoop_filter.totSnoops                 0                       # Total number of snoops made to the snoop filter. (Count)
system.l2bus.snoop_filter.hitSingleSnoops            0                       # Number of snoops hitting in the snoop filter with a single holder of the requested data. (Count)
system.l2bus.snoop_filter.hitMultiSnoops            0                       # Number of snoops hitting in the snoop filter with multiple (>1) holders of the requested data. (Count)
system.l2cache.demandHits::cpu.inst                 6                       # number of demand (read+write) hits (Count)
system.l2cache.demandHits::cpu.data               604                       # number of demand (read+write) hits (Count)
system.l2cache.demandHits::total                  610                       # number of demand (read+write) hits (Count)
system.l2cache.overallHits::cpu.inst                6                       # number of overall hits (Count)
system.l2cache.overallHits::cpu.data              604                       # number of overall hits (Count)
system.l2cache.overallHits::total                 610                       # number of overall hits (Count)
system.l2cache.demandMisses::cpu.inst             416                       # number of demand (read+write) misses (Count)
system.l2cache.demandMisses::cpu.data             310                       # number of demand (read+write) misses (Count)
system.l2cache.demandMisses::total                726                       # number of demand (read+write) misses (Count)
system.l2cache.overallMisses::cpu.inst            416                       # number of overall misses (Count)
system.l2cache.overallMisses::cpu.data            310                       # number of overall misses (Count)
system.l2cache.overallMisses::total               726                       # number of overall misses (Count)
system.l2cache.demandMissLatency::cpu.inst     31967000                       # number of demand (read+write) miss ticks (Tick)
system.l2cache.demandMissLatency::cpu.data     24124000                       # number of demand (read+write) miss ticks (Tick)
system.l2cache.demandMissLatency::total      56091000                       # number of demand (read+write) miss ticks (Tick)
system.l2cache.overallMissLatency::cpu.inst     31967000                       # number of overall miss ticks (Tick)
system.l2cache.overallMissLatency::cpu.data     24124000                       # number of overall miss ticks (Tick)
system.l2cache.overallMissLatency::total     56091000                       # number of overall miss ticks (Tick)
system.l2cache.demandAccesses::cpu.inst           422                       # number of demand (read+write) accesses (Count)
system.l2cache.demandAccesses::cpu.data           914                       # number of demand (read+write) accesses (Count)
system.l2cache.demandAccesses::total             1336                       # number of demand (read+write) accesses (Count)
system.l2cache.overallAccesses::cpu.inst          422                       # number of overall (read+write) accesses (Count)
system.l2cache.overallAccesses::cpu.data          914                       # number of overall (read+write) accesses (Count)
system.l2cache.overallAccesses::total            1336                       # number of overall (read+write) accesses (Count)
system.l2cache.demandMissRate::cpu.inst      0.985782                       # miss rate for demand accesses (Ratio)
system.l2cache.demandMissRate::cpu.data      0.339168                       # miss rate for demand accesses (Ratio)
system.l2cache.demandMissRate::total         0.543413                       # miss rate for demand accesses (Ratio)
system.l2cache.overallMissRate::cpu.inst     0.985782                       # miss rate for overall accesses (Ratio)
system.l2cache.overallMissRate::cpu.data     0.339168                       # miss rate for overall accesses (Ratio)
system.l2cache.overallMissRate::total        0.543413                       # miss rate for overall accesses (Ratio)
system.l2cache.demandAvgMissLatency::cpu.inst 76843.750000                       # average overall miss latency in ticks ((Tick/Count))
system.l2cache.demandAvgMissLatency::cpu.data 77819.354839                       # average overall miss latency in ticks ((Tick/Count))
system.l2cache.demandAvgMissLatency::total 77260.330579                       # average overall miss latency in ticks ((Tick/Count))
system.l2cache.overallAvgMissLatency::cpu.inst 76843.750000                       # average overall miss latency ((Tick/Count))
system.l2cache.overallAvgMissLatency::cpu.data 77819.354839                       # average overall miss latency ((Tick/Count))
system.l2cache.overallAvgMissLatency::total 77260.330579                       # average overall miss latency ((Tick/Count))
system.l2cache.blockedCycles::no_mshrs              0                       # number of cycles access was blocked (Cycle)
system.l2cache.blockedCycles::no_targets            0                       # number of cycles access was blocked (Cycle)
system.l2cache.blockedCauses::no_mshrs              0                       # number of times access was blocked (Count)
system.l2cache.blockedCauses::no_targets            0                       # number of times access was blocked (Count)
system.l2cache.avgBlocked::no_mshrs               nan                       # average number of cycles each access was blocked ((Cycle/Count))
system.l2cache.avgBlocked::no_targets             nan                       # average number of cycles each access was blocked ((Cycle/Count))
system.l2cache.demandMshrMisses::cpu.inst          416                       # number of demand (read+write) MSHR misses (Count)
system.l2cache.demandMshrMisses::cpu.data          310                       # number of demand (read+write) MSHR misses (Count)
system.l2cache.demandMshrMisses::total            726                       # number of demand (read+write) MSHR misses (Count)
system.l2cache.overallMshrMisses::cpu.inst          416                       # number of overall MSHR misses (Count)
system.l2cache.overallMshrMisses::cpu.data          310                       # number of overall MSHR misses (Count)
system.l2cache.overallMshrMisses::total           726                       # number of overall MSHR misses (Count)
system.l2cache.demandMshrMissLatency::cpu.inst     27807000                       # number of demand (read+write) MSHR miss ticks (Tick)
system.l2cache.demandMshrMissLatency::cpu.data     21024000                       # number of demand (read+write) MSHR miss ticks (Tick)
system.l2cache.demandMshrMissLatency::total     48831000                       # number of demand (read+write) MSHR miss ticks (Tick)
system.l2cache.overallMshrMissLatency::cpu.inst     27807000                       # number of overall MSHR miss ticks (Tick)
system.l2cache.overallMshrMissLatency::cpu.data     21024000                       # number of overall MSHR miss ticks (Tick)
system.l2cache.overallMshrMissLatency::total     48831000                       # number of overall MSHR miss ticks (Tick)
system.l2cache.demandMshrMissRate::cpu.inst     0.985782                       # mshr miss ratio for demand accesses (Ratio)
system.l2cache.demandMshrMissRate::cpu.data     0.339168                       # mshr miss ratio for demand accesses (Ratio)
system.l2cache.demandMshrMissRate::total     0.543413                       # mshr miss ratio for demand accesses (Ratio)
system.l2cache.overallMshrMissRate::cpu.inst     0.985782                       # mshr miss ratio for overall accesses (Ratio)
system.l2cache.overallMshrMissRate::cpu.data     0.339168                       # mshr miss ratio for overall accesses (Ratio)
system.l2cache.overallMshrMissRate::total     0.543413                       # mshr miss ratio for overall accesses (Ratio)
system.l2cache.demandAvgMshrMissLatency::cpu.inst 66843.750000                       # average overall mshr miss latency ((Tick/Count))
system.l2cache.demandAvgMshrMissLatency::cpu.data 67819.354839                       # average overall mshr miss latency ((Tick/Count))
system.l2cache.demandAvgMshrMissLatency::total 67260.330579                       # average overall mshr miss latency ((Tick/Count))
system.l2cache.overallAvgMshrMissLatency::cpu.inst 66843.750000                       # average overall mshr miss latency ((Tick/Count))
system.l2cache.overallAvgMshrMissLatency::cpu.data 67819.354839                       # average overall mshr miss latency ((Tick/Count))
system.l2cache.overallAvgMshrMissLatency::total 67260.330579                       # average overall mshr miss latency ((Tick/Count))
system.l2cache.replacements                         0                       # number of replacements (Count)
system.l2cache.ReadCleanReq.hits::cpu.inst            6                       # number of ReadCleanReq hits (Count)
system.l2cache.ReadCleanReq.hits::total             6                       # number of ReadCleanReq hits (Count)
system.l2cache.ReadCleanReq.misses::cpu.inst          416                       # number of ReadCleanReq misses (Count)
system.l2cache.ReadCleanReq.misses::total          416                       # number of ReadCleanReq misses (Count)
system.l2cache.ReadCleanReq.missLatency::cpu.inst     31967000                       # number of ReadCleanReq miss ticks (Tick)
system.l2cache.ReadCleanReq.missLatency::total     31967000                       # number of ReadCleanReq miss ticks (Tick)
system.l2cache.ReadCleanReq.accesses::cpu.inst          422                       # number of ReadCleanReq accesses(hits+misses) (Count)
system.l2cache.ReadCleanReq.accesses::total          422                       # number of ReadCleanReq accesses(hits+misses) (Count)
system.l2cache.ReadCleanReq.missRate::cpu.inst     0.985782                       # miss rate for ReadCleanReq accesses (Ratio)
system.l2cache.ReadCleanReq.missRate::total     0.985782                       # miss rate for ReadCleanReq accesses (Ratio)
system.l2cache.ReadCleanReq.avgMissLatency::cpu.inst 76843.750000                       # average ReadCleanReq miss latency ((Tick/Count))
system.l2cache.ReadCleanReq.avgMissLatency::total 76843.750000                       # average ReadCleanReq miss latency ((Tick/Count))
system.l2cache.ReadCleanReq.mshrMisses::cpu.inst          416                       # number of ReadCleanReq MSHR misses (Count)
system.l2cache.ReadCleanReq.mshrMisses::total          416                       # number of ReadCleanReq MSHR misses (Count)
system.l2cache.ReadCleanReq.mshrMissLatency::cpu.inst     27807000                       # number of ReadCleanReq MSHR miss ticks (Tick)
system.l2cache.ReadCleanReq.mshrMissLatency::total     27807000                       # number of ReadCleanReq MSHR miss ticks (Tick)
system.l2cache.ReadCleanReq.mshrMissRate::cpu.inst     0.985782                       # mshr miss rate for ReadCleanReq accesses (Ratio)
system.l2cache.ReadCleanReq.mshrMissRate::total     0.985782                       # mshr miss rate for ReadCleanReq accesses (Ratio)
system.l2cache.ReadCleanReq.avgMshrMissLatency::cpu.inst 66843.750000                       # average ReadCleanReq mshr miss latency ((Tick/Count))
system.l2cache.ReadCleanReq.avgMshrMissLatency::total 66843.750000                       # average ReadCleanReq mshr miss latency ((Tick/Count))
system.l2cache.ReadExReq.hits::cpu.data           301                       # number of ReadExReq hits (Count)
system.l2cache.ReadExReq.hits::total              301                       # number of ReadExReq hits (Count)
system.l2cache.ReadExReq.misses::cpu.data          183                       # number of ReadExReq misses (Count)
system.l2cache.ReadExReq.misses::total            183                       # number of ReadExReq misses (Count)
system.l2cache.ReadExReq.missLatency::cpu.data     14258000                       # number of ReadExReq miss ticks (Tick)
system.l2cache.ReadExReq.missLatency::total     14258000                       # number of ReadExReq miss ticks (Tick)
system.l2cache.ReadExReq.accesses::cpu.data          484                       # number of ReadExReq accesses(hits+misses) (Count)
system.l2cache.ReadExReq.accesses::total          484                       # number of ReadExReq accesses(hits+misses) (Count)
system.l2cache.ReadExReq.missRate::cpu.data     0.378099                       # miss rate for ReadExReq accesses (Ratio)
system.l2cache.ReadExReq.missRate::total     0.378099                       # miss rate for ReadExReq accesses (Ratio)
system.l2cache.ReadExReq.avgMissLatency::cpu.data 77912.568306                       # average ReadExReq miss latency ((Tick/Count))
system.l2cache.ReadExReq.avgMissLatency::total 77912.568306                       # average ReadExReq miss latency ((Tick/Count))
system.l2cache.ReadExReq.mshrMisses::cpu.data          183                       # number of ReadExReq MSHR misses (Count)
system.l2cache.ReadExReq.mshrMisses::total          183                       # number of ReadExReq MSHR misses (Count)
system.l2cache.ReadExReq.mshrMissLatency::cpu.data     12428000                       # number of ReadExReq MSHR miss ticks (Tick)
system.l2cache.ReadExReq.mshrMissLatency::total     12428000                       # number of ReadExReq MSHR miss ticks (Tick)
system.l2cache.ReadExReq.mshrMissRate::cpu.data     0.378099                       # mshr miss rate for ReadExReq accesses (Ratio)
system.l2cache.ReadExReq.mshrMissRate::total     0.378099                       # mshr miss rate for ReadExReq accesses (Ratio)
system.l2cache.ReadExReq.avgMshrMissLatency::cpu.data 67912.568306                       # average ReadExReq mshr miss latency ((Tick/Count))
system.l2cache.ReadExReq.avgMshrMissLatency::total 67912.568306                       # average ReadExReq mshr miss latency ((Tick/Count))
system.l2cache.ReadSharedReq.hits::cpu.data          303                       # number of ReadSharedReq hits (Count)
system.l2cache.ReadSharedReq.hits::total          303                       # number of ReadSharedReq hits (Count)
system.l2cache.ReadSharedReq.misses::cpu.data          127                       # number of ReadSharedReq misses (Count)
system.l2cache.ReadSharedReq.misses::total          127                       # number of ReadSharedReq misses (Count)
system.l2cache.ReadSharedReq.missLatency::cpu.data      9866000                       # number of ReadSharedReq miss ticks (Tick)
system.l2cache.ReadSharedReq.missLatency::total      9866000                       # number of ReadSharedReq miss ticks (Tick)
system.l2cache.ReadSharedReq.accesses::cpu.data          430                       # number of ReadSharedReq accesses(hits+misses) (Count)
system.l2cache.ReadSharedReq.accesses::total          430                       # number of ReadSharedReq accesses(hits+misses) (Count)
system.l2cache.ReadSharedReq.missRate::cpu.data     0.295349                       # miss rate for ReadSharedReq accesses (Ratio)
system.l2cache.ReadSharedReq.missRate::total     0.295349                       # miss rate for ReadSharedReq accesses (Ratio)
system.l2cache.ReadSharedReq.avgMissLatency::cpu.data 77685.039370                       # average ReadSharedReq miss latency ((Tick/Count))
system.l2cache.ReadSharedReq.avgMissLatency::total 77685.039370                       # average ReadSharedReq miss latency ((Tick/Count))
system.l2cache.ReadSharedReq.mshrMisses::cpu.data          127                       # number of ReadSharedReq MSHR misses (Count)
system.l2cache.ReadSharedReq.mshrMisses::total          127                       # number of ReadSharedReq MSHR misses (Count)
system.l2cache.ReadSharedReq.mshrMissLatency::cpu.data      8596000                       # number of ReadSharedReq MSHR miss ticks (Tick)
system.l2cache.ReadSharedReq.mshrMissLatency::total      8596000                       # number of ReadSharedReq MSHR miss ticks (Tick)
system.l2cache.ReadSharedReq.mshrMissRate::cpu.data     0.295349                       # mshr miss rate for ReadSharedReq accesses (Ratio)
system.l2cache.ReadSharedReq.mshrMissRate::total     0.295349                       # mshr miss rate for ReadSharedReq accesses (Ratio)
system.l2cache.ReadSharedReq.avgMshrMissLatency::cpu.data 67685.039370                       # average ReadSharedReq mshr miss latency ((Tick/Count))
system.l2cache.ReadSharedReq.avgMshrMissLatency::total 67685.039370                       # average ReadSharedReq mshr miss latency ((Tick/Count))
system.l2cache.WritebackDirty.hits::writebacks          306                       # number of WritebackDirty hits (Count)
system.l2cache.WritebackDirty.hits::total          306                       # number of WritebackDirty hits (Count)
system.l2cache.WritebackDirty.accesses::writebacks          306                       # number of WritebackDirty accesses(hits+misses) (Count)
system.l2cache.WritebackDirty.accesses::total          306                       # number of WritebackDirty accesses(hits+misses) (Count)
system.l2cache.power_state.pwrStateResidencyTicks::UNDEFINED   2057962000                       # Cumulative time (in ticks) in various power states (Tick)
system.l2cache.tags.tagsInUse              609.285350                       # Average ticks per tags in use ((Tick/Count))
system.l2cache.tags.totalRefs                    2029                       # Total number of references to valid blocks. (Count)
system.l2cache.tags.sampledRefs                   726                       # Sample count of references to valid blocks. (Count)
system.l2cache.tags.avgRefs                  2.794766                       # Average number of references to valid blocks. ((Count/Count))
system.l2cache.tags.warmupTick                  77000                       # The tick when the warmup percentage was hit. (Tick)
system.l2cache.tags.occupancies::cpu.inst   335.480500                       # Average occupied blocks per tick, per requestor ((Count/Tick))
system.l2cache.tags.occupancies::cpu.data   273.804850                       # Average occupied blocks per tick, per requestor ((Count/Tick))
system.l2cache.tags.avgOccs::cpu.inst        0.081904                       # Average percentage of cache occupancy ((Ratio/Tick))
system.l2cache.tags.avgOccs::cpu.data        0.066847                       # Average percentage of cache occupancy ((Ratio/Tick))
system.l2cache.tags.avgOccs::total           0.148751                       # Average percentage of cache occupancy ((Ratio/Tick))
system.l2cache.tags.occupanciesTaskId::1024          726                       # Occupied blocks per task id (Count)
system.l2cache.tags.ageTaskId_1024::0              50                       # Occupied blocks per task id, per block age (Count)
system.l2cache.tags.ageTaskId_1024::1              27                       # Occupied blocks per task id, per block age (Count)
system.l2cache.tags.ageTaskId_1024::2              27                       # Occupied blocks per task id, per block age (Count)
system.l2cache.tags.ageTaskId_1024::3             622                       # Occupied blocks per task id, per block age (Count)
system.l2cache.tags.ratioOccsTaskId::1024     0.177246                       # Ratio of occupied blocks and all blocks, per task id (Ratio)
system.l2cache.tags.tagAccesses                 16958                       # Number of tag accesses (Count)
system.l2cache.tags.dataAccesses                16958                       # Number of data accesses (Count)
system.l2cache.tags.power_state.pwrStateResidencyTicks::UNDEFINED   2057962000                       # Cumulative time (in ticks) in various power states (Tick)
system.mem_ctrl.avgPriority_cpu.inst::samples       416.00                       # Average QoS priority value for accepted requests (Count)
system.mem_ctrl.avgPriority_cpu.data::samples       310.00                       # Average QoS priority value for accepted requests (Count)
system.mem_ctrl.priorityMinLatency       0.000000018750                       # per QoS priority minimum request to response latency (Second)
system.mem_ctrl.priorityMaxLatency       0.000000576500                       # per QoS priority maximum request to response latency (Second)
system.mem_ctrl.numReadWriteTurnArounds             0                       # Number of turnarounds from READ to WRITE (Count)
system.mem_ctrl.numWriteReadTurnArounds             0                       # Number of turnarounds from WRITE to READ (Count)
system.mem_ctrl.numStayReadState                 1980                       # Number of times bus staying in READ state (Count)
system.mem_ctrl.numStayWriteState                   0                       # Number of times bus staying in WRITE state (Count)
system.mem_ctrl.readReqs                          726                       # Number of read requests accepted (Count)
system.mem_ctrl.writeReqs                           0                       # Number of write requests accepted (Count)
system.mem_ctrl.readBursts                        726                       # Number of controller read bursts, including those serviced by the write queue (Count)
system.mem_ctrl.writeBursts                         0                       # Number of controller write bursts, including those merged in the write queue (Count)
system.mem_ctrl.servicedByWrQ                       0                       # Number of controller read bursts serviced by the write queue (Count)
system.mem_ctrl.mergedWrBursts                      0                       # Number of controller write bursts merged with an existing one (Count)
system.mem_ctrl.neitherReadNorWriteReqs             0                       # Number of requests that are neither read nor write (Count)
system.mem_ctrl.avgRdQLen                        1.00                       # Average read queue length when enqueuing ((Count/Tick))
system.mem_ctrl.avgWrQLen                        0.00                       # Average write queue length when enqueuing ((Count/Tick))
system.mem_ctrl.numRdRetry                          0                       # Number of times read queue was full causing retry (Count)
system.mem_ctrl.numWrRetry                          0                       # Number of times write queue was full causing retry (Count)
system.mem_ctrl.readPktSize::0                      0                       # Read request sizes (log2) (Count)
system.mem_ctrl.readPktSize::1                      0                       # Read request sizes (log2) (Count)
system.mem_ctrl.readPktSize::2                      0                       # Read request sizes (log2) (Count)
system.mem_ctrl.readPktSize::3                      0                       # Read request sizes (log2) (Count)
system.mem_ctrl.readPktSize::4                      0                       # Read request sizes (log2) (Count)
system.mem_ctrl.readPktSize::5                      0                       # Read request sizes (log2) (Count)
system.mem_ctrl.readPktSize::6                    726                       # Read request sizes (log2) (Count)
system.mem_ctrl.writePktSize::0                     0                       # Write request sizes (log2) (Count)
system.mem_ctrl.writePktSize::1                     0                       # Write request sizes (log2) (Count)
system.mem_ctrl.writePktSize::2                     0                       # Write request sizes (log2) (Count)
system.mem_ctrl.writePktSize::3                     0                       # Write request sizes (log2) (Count)
[...]
system.mem_ctrl.requestorReadAccesses::cpu.inst          416                       # Per-requestor read serviced memory accesses (Count)
system.mem_ctrl.requestorReadAccesses::cpu.data          310                       # Per-requestor read serviced memory accesses (Count)
system.mem_ctrl.requestorReadTotalLat::cpu.inst     10615750                       # Per-requestor read total memory access latency (Tick)
system.mem_ctrl.requestorReadTotalLat::cpu.data      8203500                       # Per-requestor read total memory access latency (Tick)
system.mem_ctrl.requestorReadAvgLat::cpu.inst     25518.63                       # Per-requestor read average memory access latency ((Tick/Count))
system.mem_ctrl.requestorReadAvgLat::cpu.data     26462.90                       # Per-requestor read average memory access latency ((Tick/Count))
system.mem_ctrl.dram.bytesRead::cpu.inst        26624                       # Number of bytes read from this memory (Byte)
system.mem_ctrl.dram.bytesRead::cpu.data        19840                       # Number of bytes read from this memory (Byte)
system.mem_ctrl.dram.bytesRead::total           46464                       # Number of bytes read from this memory (Byte)
system.mem_ctrl.dram.bytesInstRead::cpu.inst        26624                       # Number of instructions bytes read from this memory (Byte)
system.mem_ctrl.dram.bytesInstRead::total        26624                       # Number of instructions bytes read from this memory (Byte)
system.mem_ctrl.dram.numReads::cpu.inst           416                       # Number of read requests responded to by this memory (Count)
system.mem_ctrl.dram.numReads::cpu.data           310                       # Number of read requests responded to by this memory (Count)
system.mem_ctrl.dram.numReads::total              726                       # Number of read requests responded to by this memory (Count)
system.mem_ctrl.dram.bwRead::cpu.inst        12937071                       # Total read bandwidth from this memory ((Byte/Second))
system.mem_ctrl.dram.bwRead::cpu.data         9640606                       # Total read bandwidth from this memory ((Byte/Second))
system.mem_ctrl.dram.bwRead::total           22577676                       # Total read bandwidth from this memory ((Byte/Second))
system.mem_ctrl.dram.bwInstRead::cpu.inst     12937071                       # Instruction read bandwidth from this memory ((Byte/Second))
system.mem_ctrl.dram.bwInstRead::total       12937071                       # Instruction read bandwidth from this memory ((Byte/Second))
system.mem_ctrl.dram.bwTotal::cpu.inst       12937071                       # Total bandwidth to/from this memory ((Byte/Second))
system.mem_ctrl.dram.bwTotal::cpu.data        9640606                       # Total bandwidth to/from this memory ((Byte/Second))
system.mem_ctrl.dram.bwTotal::total          22577676                       # Total bandwidth to/from this memory ((Byte/Second))
system.mem_ctrl.dram.readBursts                   726                       # Number of DRAM read bursts (Count)
system.mem_ctrl.dram.writeBursts                    0                       # Number of DRAM write bursts (Count)
system.mem_ctrl.dram.perBankRdBursts::0            63                       # Per bank write bursts (Count)
system.mem_ctrl.dram.perBankRdBursts::1            36                       # Per bank write bursts (Count)
system.mem_ctrl.dram.perBankRdBursts::2            66                       # Per bank write bursts (Count)
system.mem_ctrl.dram.perBankRdBursts::3            75                       # Per bank write bursts (Count)
system.mem_ctrl.dram.perBankRdBursts::4            60                       # Per bank write bursts (Count)
system.mem_ctrl.dram.perBankRdBursts::5            18                       # Per bank write bursts (Count)
system.mem_ctrl.dram.perBankRdBursts::6            58                       # Per bank write bursts (Count)
system.mem_ctrl.dram.perBankRdBursts::7            93                       # Per bank write bursts (Count)
system.mem_ctrl.dram.perBankRdBursts::8            81                       # Per bank write bursts (Count)
system.mem_ctrl.dram.perBankRdBursts::9            54                       # Per bank write bursts (Count)
system.mem_ctrl.dram.perBankRdBursts::10           80                       # Per bank write bursts (Count)
system.mem_ctrl.dram.perBankRdBursts::11           12                       # Per bank write bursts (Count)
system.mem_ctrl.dram.perBankRdBursts::12           10                       # Per bank write bursts (Count)
system.mem_ctrl.dram.perBankRdBursts::13           13                       # Per bank write bursts (Count)
system.mem_ctrl.dram.perBankRdBursts::14            4                       # Per bank write bursts (Count)
system.mem_ctrl.dram.perBankRdBursts::15            3                       # Per bank write bursts (Count)
system.mem_ctrl.dram.perBankWrBursts::0             0                       # Per bank write bursts (Count)
system.mem_ctrl.dram.perBankWrBursts::1             0                       # Per bank write bursts (Count)
system.mem_ctrl.dram.perBankWrBursts::2             0                       # Per bank write bursts (Count)
system.mem_ctrl.dram.perBankWrBursts::3             0                       # Per bank write bursts (Count)
system.mem_ctrl.dram.perBankWrBursts::4             0                       # Per bank write bursts (Count)
system.mem_ctrl.dram.perBankWrBursts::5             0                       # Per bank write bursts (Count)
system.mem_ctrl.dram.perBankWrBursts::6             0                       # Per bank write bursts (Count)
system.mem_ctrl.dram.perBankWrBursts::7             0                       # Per bank write bursts (Count)
system.mem_ctrl.dram.perBankWrBursts::8             0                       # Per bank write bursts (Count)
system.mem_ctrl.dram.perBankWrBursts::9             0                       # Per bank write bursts (Count)
system.mem_ctrl.dram.perBankWrBursts::10            0                       # Per bank write bursts (Count)
system.mem_ctrl.dram.perBankWrBursts::11            0                       # Per bank write bursts (Count)
system.mem_ctrl.dram.perBankWrBursts::12            0                       # Per bank write bursts (Count)
system.mem_ctrl.dram.perBankWrBursts::13            0                       # Per bank write bursts (Count)
system.mem_ctrl.dram.perBankWrBursts::14            0                       # Per bank write bursts (Count)
system.mem_ctrl.dram.perBankWrBursts::15            0                       # Per bank write bursts (Count)
system.mem_ctrl.dram.totQLat                  5206750                       # Total ticks spent queuing (Tick)
system.mem_ctrl.dram.totBusLat                3630000                       # Total ticks spent in databus transfers (Tick)
system.mem_ctrl.dram.totMemAccLat            18819250                       # Total ticks spent from burst creation until serviced by the DRAM (Tick)
system.mem_ctrl.dram.avgQLat                  7171.83                       # Average queueing delay per DRAM burst ((Tick/Count))
system.mem_ctrl.dram.avgBusLat                5000.00                       # Average bus latency per DRAM burst ((Tick/Count))
system.mem_ctrl.dram.avgMemAccLat            25921.83                       # Average memory access latency per DRAM burst ((Tick/Count))
system.mem_ctrl.dram.readRowHits                  513                       # Number of row buffer hits during reads (Count)
system.mem_ctrl.dram.writeRowHits                   0                       # Number of row buffer hits during writes (Count)
system.mem_ctrl.dram.readRowHitRate             70.66                       # Row buffer hit rate for reads (Ratio)
system.mem_ctrl.dram.writeRowHitRate              nan                       # Row buffer hit rate for writes (Ratio)
system.mem_ctrl.dram.bytesPerActivate::samples          208                       # Bytes accessed per row activation (Byte)
system.mem_ctrl.dram.bytesPerActivate::mean   218.461538                       # Bytes accessed per row activation (Byte)
system.mem_ctrl.dram.bytesPerActivate::gmean   141.391543                       # Bytes accessed per row activation (Byte)
system.mem_ctrl.dram.bytesPerActivate::stdev   240.884879                       # Bytes accessed per row activation (Byte)
system.mem_ctrl.dram.bytesPerActivate::0-127           93     44.71%     44.71% # Bytes accessed per row activation (Byte)
system.mem_ctrl.dram.bytesPerActivate::128-255           57     27.40%     72.12% # Bytes accessed per row activation (Byte)
system.mem_ctrl.dram.bytesPerActivate::256-383           19      9.13%     81.25% # Bytes accessed per row activation (Byte)
system.mem_ctrl.dram.bytesPerActivate::384-511           11      5.29%     86.54% # Bytes accessed per row activation (Byte)
system.mem_ctrl.dram.bytesPerActivate::512-639           11      5.29%     91.83% # Bytes accessed per row activation (Byte)
system.mem_ctrl.dram.bytesPerActivate::640-767            5      2.40%     94.23% # Bytes accessed per row activation (Byte)
system.mem_ctrl.dram.bytesPerActivate::768-895            3      1.44%     95.67% # Bytes accessed per row activation (Byte)
system.mem_ctrl.dram.bytesPerActivate::1024-1151            9      4.33%    100.00% # Bytes accessed per row activation (Byte)
system.mem_ctrl.dram.bytesPerActivate::total          208                       # Bytes accessed per row activation (Byte)
system.mem_ctrl.dram.bytesRead                  46464                       # Total bytes read (Byte)
system.mem_ctrl.dram.bytesWritten                   0                       # Total bytes written (Byte)
system.mem_ctrl.dram.avgRdBW                22.577676                       # Average DRAM read bandwidth in MiBytes/s ((Byte/Second))
system.mem_ctrl.dram.avgWrBW                        0                       # Average DRAM write bandwidth in MiBytes/s ((Byte/Second))
system.mem_ctrl.dram.peakBW                  12800.00                       # Theoretical peak bandwidth in MiByte/s ((Byte/Second))
system.mem_ctrl.dram.busUtil                     0.18                       # Data bus utilization in percentage (Ratio)
system.mem_ctrl.dram.busUtilRead                 0.18                       # Data bus utilization in percentage for reads (Ratio)
system.mem_ctrl.dram.busUtilWrite                0.00                       # Data bus utilization in percentage for writes (Ratio)
system.mem_ctrl.dram.pageHitRate                70.66                       # Row buffer hit rate, read and write combined (Ratio)
system.mem_ctrl.dram.power_state.pwrStateResidencyTicks::UNDEFINED   2057962000                       # Cumulative time (in ticks) in various power states (Tick)
system.mem_ctrl.dram.rank0.actEnergy           813960                       # Energy for activate commands per rank (pJ) (Joule)
system.mem_ctrl.dram.rank0.preEnergy           417450                       # Energy for precharge commands per rank (pJ) (Joule)
system.mem_ctrl.dram.rank0.readEnergy         3348660                       # Energy for read commands per rank (pJ) (Joule)
system.mem_ctrl.dram.rank0.writeEnergy              0                       # Energy for write commands per rank (pJ) (Joule)
system.mem_ctrl.dram.rank0.refreshEnergy 162264960.000000                       # Energy for refresh commands per rank (pJ) (Joule)
system.mem_ctrl.dram.rank0.actBackEnergy     75807720                       # Energy for active background per rank (pJ) (Joule)
system.mem_ctrl.dram.rank0.preBackEnergy    726419520                       # Energy for precharge background per rank (pJ) (Joule)
system.mem_ctrl.dram.rank0.actPowerDownEnergy            0                       # Energy for active power-down per rank (pJ) (Joule)
system.mem_ctrl.dram.rank0.prePowerDownEnergy            0                       # Energy for precharge power-down per rank (pJ) (Joule)
system.mem_ctrl.dram.rank0.selfRefreshEnergy            0                       # Energy for self refresh per rank (pJ) (Joule)
system.mem_ctrl.dram.rank0.totalEnergy      969072270                       # Total energy per rank (pJ) (Joule)
system.mem_ctrl.dram.rank0.averagePower    470.889292                       # Core power per rank (mW) (Watt)
system.mem_ctrl.dram.rank0.totalIdleTime            0                       # Total Idle time Per DRAM Rank (Tick)
system.mem_ctrl.dram.rank0.pwrStateTime::IDLE   1887862750                       # Time in different power states (Tick)
system.mem_ctrl.dram.rank0.pwrStateTime::REF     68640000                       # Time in different power states (Tick)
system.mem_ctrl.dram.rank0.pwrStateTime::SREF            0                       # Time in different power states (Tick)
system.mem_ctrl.dram.rank0.pwrStateTime::PRE_PDN            0                       # Time in different power states (Tick)
system.mem_ctrl.dram.rank0.pwrStateTime::ACT    101459250                       # Time in different power states (Tick)
system.mem_ctrl.dram.rank0.pwrStateTime::ACT_PDN            0                       # Time in different power states (Tick)
system.mem_ctrl.dram.rank1.actEnergy           706860                       # Energy for activate commands per rank (pJ) (Joule)
system.mem_ctrl.dram.rank1.preEnergy           371910                       # Energy for precharge commands per rank (pJ) (Joule)
system.mem_ctrl.dram.rank1.readEnergy         1834980                       # Energy for read commands per rank (pJ) (Joule)
system.mem_ctrl.dram.rank1.writeEnergy              0                       # Energy for write commands per rank (pJ) (Joule)
system.mem_ctrl.dram.rank1.refreshEnergy 162264960.000000                       # Energy for refresh commands per rank (pJ) (Joule)
system.mem_ctrl.dram.rank1.actBackEnergy    150561510                       # Energy for active background per rank (pJ) (Joule)
system.mem_ctrl.dram.rank1.preBackEnergy    663468960                       # Energy for precharge background per rank (pJ) (Joule)
system.mem_ctrl.dram.rank1.actPowerDownEnergy            0                       # Energy for active power-down per rank (pJ) (Joule)
system.mem_ctrl.dram.rank1.prePowerDownEnergy            0                       # Energy for precharge power-down per rank (pJ) (Joule)
system.mem_ctrl.dram.rank1.selfRefreshEnergy            0                       # Energy for self refresh per rank (pJ) (Joule)
system.mem_ctrl.dram.rank1.totalEnergy      979209180                       # Total energy per rank (pJ) (Joule)
system.mem_ctrl.dram.rank1.averagePower    475.814996                       # Core power per rank (mW) (Watt)
system.mem_ctrl.dram.rank1.totalIdleTime            0                       # Total Idle time Per DRAM Rank (Tick)
system.mem_ctrl.dram.rank1.pwrStateTime::IDLE   1723301250                       # Time in different power states (Tick)
system.mem_ctrl.dram.rank1.pwrStateTime::REF     68640000                       # Time in different power states (Tick)
system.mem_ctrl.dram.rank1.pwrStateTime::SREF            0                       # Time in different power states (Tick)
system.mem_ctrl.dram.rank1.pwrStateTime::PRE_PDN            0                       # Time in different power states (Tick)
system.mem_ctrl.dram.rank1.pwrStateTime::ACT    266020750                       # Time in different power states (Tick)
system.mem_ctrl.dram.rank1.pwrStateTime::ACT_PDN            0                       # Time in different power states (Tick)
system.mem_ctrl.power_state.pwrStateResidencyTicks::UNDEFINED   2057962000                       # Cumulative time (in ticks) in various power states (Tick)
system.membus.transDist::ReadResp                 543                       # Transaction distribution (Count)
system.membus.transDist::ReadExReq                183                       # Transaction distribution (Count)
system.membus.transDist::ReadExResp               183                       # Transaction distribution (Count)
system.membus.transDist::ReadSharedReq            543                       # Transaction distribution (Count)
system.membus.pktCount_system.l2cache.mem_side_port::system.mem_ctrl.port         1452                       # Packet count per connected requestor and responder (Count)
system.membus.pktCount::total                    1452                       # Packet count per connected requestor and responder (Count)
system.membus.pktSize_system.l2cache.mem_side_port::system.mem_ctrl.port        46464                       # Cumulative packet size per connected requestor and responder (Byte)
system.membus.pktSize::total                    46464                       # Cumulative packet size per connected requestor and responder (Byte)
system.membus.snoops                                0                       # Total snoops (Count)
system.membus.snoopTraffic                          0                       # Total snoop traffic (Byte)
system.membus.snoopFanout::samples                726                       # Request fanout histogram (Count)
system.membus.snoopFanout::mean                     0                       # Request fanout histogram (Count)
system.membus.snoopFanout::stdev                    0                       # Request fanout histogram (Count)
system.membus.snoopFanout::underflows               0      0.00%      0.00% # Request fanout histogram (Count)
system.membus.snoopFanout::0                      726    100.00%    100.00% # Request fanout histogram (Count)
system.membus.snoopFanout::1                        0      0.00%    100.00% # Request fanout histogram (Count)
system.membus.snoopFanout::overflows                0      0.00%    100.00% # Request fanout histogram (Count)
system.membus.snoopFanout::min_value                0                       # Request fanout histogram (Count)
system.membus.snoopFanout::max_value                0                       # Request fanout histogram (Count)
system.membus.snoopFanout::total                  726                       # Request fanout histogram (Count)
system.membus.power_state.pwrStateResidencyTicks::UNDEFINED   2057962000                       # Cumulative time (in ticks) in various power states (Tick)
system.membus.reqLayer0.occupancy              726000                       # Layer occupancy (ticks) (Tick)
system.membus.reqLayer0.utilization               0.0                       # Layer utilization (Ratio)
system.membus.respLayer1.occupancy            3875750                       # Layer occupancy (ticks) (Tick)
system.membus.respLayer1.utilization              0.0                       # Layer utilization (Ratio)
system.membus.snoop_filter.totRequests            726                       # Total number of requests made to the snoop filter. (Count)
system.membus.snoop_filter.hitSingleRequests            0                       # Number of requests hitting in the snoop filter with a single holder of the requested data. (Count)
system.membus.snoop_filter.hitMultiRequests            0                       # Number of requests hitting in the snoop filter with multiple (>1) holders of the requested data. (Count)
system.membus.snoop_filter.totSnoops                0                       # Total number of snoops made to the snoop filter. (Count)
system.membus.snoop_filter.hitSingleSnoops            0                       # Number of snoops hitting in the snoop filter with a single holder of the requested data. (Count)
system.membus.snoop_filter.hitMultiSnoops            0                       # Number of snoops hitting in the snoop filter with multiple (>1) holders of the requested data. (Count)
system.workload.inst.arm                            0                       # number of arm instructions executed (Count)
system.workload.inst.quiesce                        0                       # number of quiesce instructions executed (Count)

---------- End Simulation Statistics   ----------
